*----------------------------------------------------------------------
* SPICE Netlist Generated by TDK Corporation
* Copyright(C) 2015 TDK Corporation.
* All Rights Reserved.
*----------------------------------------------------------------------
* TDK P/N: CGA3E2NP01H471J080AA (Multilayer Ceramic Chip Capacitor)
* Property: C=470pF
* Size(LxWxT): 1.6x0.8x0.8mm, 0.063x0.031x0.031inches
* Model Type: Precise Model
* Model Generated on June 29, 2015
*----------------------------------------------------------------------
* Terms and conditions regarding TDK Simulation Models:
* 1)This simulation model is being provided solely for informational
*   purposes. Please refer to the specifications of the products in
*   terms of detailed characteristics of such products.
* 2)In no event shall TDK Corporation of any of its subsidiaries be
*   liable for any loss or damage arising, directly or indirectly,
*   from any information contained in this simulation model, including,
*   but not limited to loss or damages arising from any inaccuracies,
*   omissions or errors in connection with such information.
* 3)Any and all copyrights on this simulation model are owned by
*   TDK Corporation.  Duplication or redistribution of this simulation
*   model without prior written permission from TDK Corporation
*   is prohibited.
* 4)This simulation model is subject to any modification or change
*   without any prior notice.
* 5)Neither TDK Corporation nor any of its subsidiaries shall make any
*   warranty, express or implied, including but not limited to the
*   correctness, implied warranties of merchantability and fitness for
*   a particular purpose with respect to this simulation models.
* 6)The use of this simulation model shall be deemed to have consented
*   to the terms and conditions hereof.
*----------------------------------------------------------------------
* External Node Assignments:
*
*  n1 ---| |--- n2
*
*----------------------------------------------------------------------
* Applicable Conditions:
*   Temperature = 25 degC
*   DC Bias Voltage = 0 V
*   Small Signal Operation
*----------------------------------------------------------------------
.SUBCKT CGA3E2NP01H471J080AA_p n1 n2
C1 n1 11 4.70000000E-10
L1 11 12 3.99997442E-10
L2 12 13 4.72117852E-11
L3 13 14 1.07244018E-10
L4 14 15 2.60477185E-10
L5 15 16 7.72005829E-10
R1 n2 12 1.45566357E-01
R2 n2 13 6.73189408E-02
R3 n2 14 3.11324668E-02
R4 n2 15 1.43975897E-02
R5 n2 16 6.65834133E-03
R6 n1 11 1.00000000E+10
.ENDS CGA3E2NP01H471J080AA_p
*----------------------------------------------------------------------
